* NGSPICE file created from tile_clb.ext - technology: sky130A

* Black-box entry subcircuit for sky130_fd_sc_hd__fill_4 abstract view
.subckt sky130_fd_sc_hd__fill_4 VGND VNB VPB VPWR
.ends

* Black-box entry subcircuit for sky130_fd_sc_hd__o21ba_1 abstract view
.subckt sky130_fd_sc_hd__o21ba_1 A1 A2 B1_N VGND VNB VPB VPWR X
.ends

* Black-box entry subcircuit for sky130_fd_sc_hd__fill_8 abstract view
.subckt sky130_fd_sc_hd__fill_8 VGND VNB VPB VPWR
.ends

* Black-box entry subcircuit for sky130_fd_sc_hd__and3_1 abstract view
.subckt sky130_fd_sc_hd__and3_1 A B C VGND VNB VPB VPWR X
.ends

* Black-box entry subcircuit for sky130_fd_sc_hd__tapvpwrvgnd_1 abstract view
.subckt sky130_fd_sc_hd__tapvpwrvgnd_1 VGND VPWR
.ends

* Black-box entry subcircuit for sky130_fd_sc_hd__dfxtp_1 abstract view
.subckt sky130_fd_sc_hd__dfxtp_1 CLK D VGND VNB VPB VPWR Q
.ends

* Black-box entry subcircuit for sky130_fd_sc_hd__fill_1 abstract view
.subckt sky130_fd_sc_hd__fill_1 VGND VNB VPB VPWR
.ends

* Black-box entry subcircuit for sky130_fd_sc_hd__fill_2 abstract view
.subckt sky130_fd_sc_hd__fill_2 VGND VNB VPB VPWR
.ends

* Black-box entry subcircuit for sky130_fd_sc_hd__o21a_1 abstract view
.subckt sky130_fd_sc_hd__o21a_1 A1 A2 B1 VGND VNB VPB VPWR X
.ends

* Black-box entry subcircuit for sky130_fd_sc_hd__a311o_2 abstract view
.subckt sky130_fd_sc_hd__a311o_2 A1 A2 A3 B1 C1 VGND VNB VPB VPWR X
.ends

* Black-box entry subcircuit for sky130_fd_sc_hd__o221a_1 abstract view
.subckt sky130_fd_sc_hd__o221a_1 A1 A2 B1 B2 C1 VGND VNB VPB VPWR X
.ends

* Black-box entry subcircuit for sky130_fd_sc_hd__a22o_1 abstract view
.subckt sky130_fd_sc_hd__a22o_1 A1 A2 B1 B2 VGND VNB VPB VPWR X
.ends

* Black-box entry subcircuit for sky130_fd_sc_hd__mux2_1 abstract view
.subckt sky130_fd_sc_hd__mux2_1 A0 A1 S VGND VNB VPB VPWR X
.ends

* Black-box entry subcircuit for sky130_fd_sc_hd__o2111a_1 abstract view
.subckt sky130_fd_sc_hd__o2111a_1 A1 A2 B1 C1 D1 VGND VNB VPB VPWR X
.ends

* Black-box entry subcircuit for sky130_fd_sc_hd__dlymetal6s2s_1 abstract view
.subckt sky130_fd_sc_hd__dlymetal6s2s_1 A VGND VNB VPB VPWR X
.ends

* Black-box entry subcircuit for sky130_fd_sc_hd__clkbuf_2 abstract view
.subckt sky130_fd_sc_hd__clkbuf_2 A VGND VNB VPB VPWR X
.ends

* Black-box entry subcircuit for sky130_fd_sc_hd__clkbuf_16 abstract view
.subckt sky130_fd_sc_hd__clkbuf_16 A VGND VNB VPB VPWR X
.ends

* Black-box entry subcircuit for sky130_fd_sc_hd__a21oi_1 abstract view
.subckt sky130_fd_sc_hd__a21oi_1 A1 A2 B1 VGND VNB VPB VPWR Y
.ends

* Black-box entry subcircuit for sky130_fd_sc_hd__a31o_1 abstract view
.subckt sky130_fd_sc_hd__a31o_1 A1 A2 A3 B1 VGND VNB VPB VPWR X
.ends

* Black-box entry subcircuit for sky130_fd_sc_hd__buf_2 abstract view
.subckt sky130_fd_sc_hd__buf_2 A VGND VNB VPB VPWR X
.ends

* Black-box entry subcircuit for sky130_fd_sc_hd__o21ai_2 abstract view
.subckt sky130_fd_sc_hd__o21ai_2 A1 A2 B1 VGND VNB VPB VPWR Y
.ends

* Black-box entry subcircuit for sky130_fd_sc_hd__clkbuf_1 abstract view
.subckt sky130_fd_sc_hd__clkbuf_1 A VGND VNB VPB VPWR X
.ends

* Black-box entry subcircuit for sky130_fd_sc_hd__and2_1 abstract view
.subckt sky130_fd_sc_hd__and2_1 A B VGND VNB VPB VPWR X
.ends

* Black-box entry subcircuit for sky130_fd_sc_hd__and3b_1 abstract view
.subckt sky130_fd_sc_hd__and3b_1 A_N B C VGND VNB VPB VPWR X
.ends

* Black-box entry subcircuit for sky130_fd_sc_hd__nand2_1 abstract view
.subckt sky130_fd_sc_hd__nand2_1 A B VGND VNB VPB VPWR Y
.ends

* Black-box entry subcircuit for sky130_fd_sc_hd__nor2_1 abstract view
.subckt sky130_fd_sc_hd__nor2_1 A B VGND VNB VPB VPWR Y
.ends

* Black-box entry subcircuit for sky130_fd_sc_hd__a221o_1 abstract view
.subckt sky130_fd_sc_hd__a221o_1 A1 A2 B1 B2 C1 VGND VNB VPB VPWR X
.ends

* Black-box entry subcircuit for sky130_fd_sc_hd__and4b_1 abstract view
.subckt sky130_fd_sc_hd__and4b_1 A_N B C D VGND VNB VPB VPWR X
.ends

* Black-box entry subcircuit for sky130_fd_sc_hd__inv_2 abstract view
.subckt sky130_fd_sc_hd__inv_2 A VGND VNB VPB VPWR Y
.ends

* Black-box entry subcircuit for sky130_fd_sc_hd__dfxtp_2 abstract view
.subckt sky130_fd_sc_hd__dfxtp_2 CLK D VGND VNB VPB VPWR Q
.ends

* Black-box entry subcircuit for sky130_fd_sc_hd__o311a_1 abstract view
.subckt sky130_fd_sc_hd__o311a_1 A1 A2 A3 B1 C1 VGND VNB VPB VPWR X
.ends

* Black-box entry subcircuit for sky130_fd_sc_hd__mux2_4 abstract view
.subckt sky130_fd_sc_hd__mux2_4 A0 A1 S VGND VNB VPB VPWR X
.ends

* Black-box entry subcircuit for sky130_fd_sc_hd__and2b_1 abstract view
.subckt sky130_fd_sc_hd__and2b_1 A_N B VGND VNB VPB VPWR X
.ends

* Black-box entry subcircuit for sky130_fd_sc_hd__decap_3 abstract view
.subckt sky130_fd_sc_hd__decap_3 VGND VNB VPB VPWR
.ends

* Black-box entry subcircuit for sky130_fd_sc_hd__and3b_2 abstract view
.subckt sky130_fd_sc_hd__and3b_2 A_N B C VGND VNB VPB VPWR X
.ends

* Black-box entry subcircuit for sky130_fd_sc_hd__a31oi_4 abstract view
.subckt sky130_fd_sc_hd__a31oi_4 A1 A2 A3 B1 VGND VNB VPB VPWR Y
.ends

* Black-box entry subcircuit for sky130_fd_sc_hd__or2_1 abstract view
.subckt sky130_fd_sc_hd__or2_1 A B VGND VNB VPB VPWR X
.ends

* Black-box entry subcircuit for sky130_fd_sc_hd__or3b_2 abstract view
.subckt sky130_fd_sc_hd__or3b_2 A B C_N VGND VNB VPB VPWR X
.ends

* Black-box entry subcircuit for sky130_fd_sc_hd__mux4_2 abstract view
.subckt sky130_fd_sc_hd__mux4_2 A0 A1 A2 A3 S0 S1 VGND VNB VPB VPWR X
.ends

* Black-box entry subcircuit for sky130_fd_sc_hd__a21oi_2 abstract view
.subckt sky130_fd_sc_hd__a21oi_2 A1 A2 B1 VGND VNB VPB VPWR Y
.ends

* Black-box entry subcircuit for sky130_fd_sc_hd__mux4_1 abstract view
.subckt sky130_fd_sc_hd__mux4_1 A0 A1 A2 A3 S0 S1 VGND VNB VPB VPWR X
.ends

* Black-box entry subcircuit for sky130_fd_sc_hd__a211o_1 abstract view
.subckt sky130_fd_sc_hd__a211o_1 A1 A2 B1 C1 VGND VNB VPB VPWR X
.ends

* Black-box entry subcircuit for sky130_fd_sc_hd__o211a_1 abstract view
.subckt sky130_fd_sc_hd__o211a_1 A1 A2 B1 C1 VGND VNB VPB VPWR X
.ends

* Black-box entry subcircuit for sky130_fd_sc_hd__o22a_1 abstract view
.subckt sky130_fd_sc_hd__o22a_1 A1 A2 B1 B2 VGND VNB VPB VPWR X
.ends

* Black-box entry subcircuit for sky130_fd_sc_hd__or3b_1 abstract view
.subckt sky130_fd_sc_hd__or3b_1 A B C_N VGND VNB VPB VPWR X
.ends

* Black-box entry subcircuit for sky130_fd_sc_hd__a2111o_1 abstract view
.subckt sky130_fd_sc_hd__a2111o_1 A1 A2 B1 C1 D1 VGND VNB VPB VPWR X
.ends

* Black-box entry subcircuit for sky130_fd_sc_hd__a32o_1 abstract view
.subckt sky130_fd_sc_hd__a32o_1 A1 A2 A3 B1 B2 VGND VNB VPB VPWR X
.ends

* Black-box entry subcircuit for sky130_fd_sc_hd__o2111a_2 abstract view
.subckt sky130_fd_sc_hd__o2111a_2 A1 A2 B1 C1 D1 VGND VNB VPB VPWR X
.ends

* Black-box entry subcircuit for sky130_fd_sc_hd__mux2_2 abstract view
.subckt sky130_fd_sc_hd__mux2_2 A0 A1 S VGND VNB VPB VPWR X
.ends

* Black-box entry subcircuit for sky130_fd_sc_hd__a31o_2 abstract view
.subckt sky130_fd_sc_hd__a31o_2 A1 A2 A3 B1 VGND VNB VPB VPWR X
.ends

* Black-box entry subcircuit for sky130_fd_sc_hd__nand3b_1 abstract view
.subckt sky130_fd_sc_hd__nand3b_1 A_N B C VGND VNB VPB VPWR Y
.ends

* Black-box entry subcircuit for sky130_fd_sc_hd__clkbuf_4 abstract view
.subckt sky130_fd_sc_hd__clkbuf_4 A VGND VNB VPB VPWR X
.ends

* Black-box entry subcircuit for sky130_fd_sc_hd__and2_2 abstract view
.subckt sky130_fd_sc_hd__and2_2 A B VGND VNB VPB VPWR X
.ends

* Black-box entry subcircuit for sky130_fd_sc_hd__a21o_1 abstract view
.subckt sky130_fd_sc_hd__a21o_1 A1 A2 B1 VGND VNB VPB VPWR X
.ends

* Black-box entry subcircuit for sky130_ef_sc_hd__decap_12 abstract view
.subckt sky130_ef_sc_hd__decap_12 VGND VPWR VPB VNB
.ends

* Black-box entry subcircuit for sky130_fd_sc_hd__and4_1 abstract view
.subckt sky130_fd_sc_hd__and4_1 A B C D VGND VNB VPB VPWR X
.ends

* Black-box entry subcircuit for sky130_fd_sc_hd__or3_1 abstract view
.subckt sky130_fd_sc_hd__or3_1 A B C VGND VNB VPB VPWR X
.ends

* Black-box entry subcircuit for sky130_fd_sc_hd__o32a_1 abstract view
.subckt sky130_fd_sc_hd__o32a_1 A1 A2 A3 B1 B2 VGND VNB VPB VPWR X
.ends

* Black-box entry subcircuit for sky130_fd_sc_hd__nor2_2 abstract view
.subckt sky130_fd_sc_hd__nor2_2 A B VGND VNB VPB VPWR Y
.ends

* Black-box entry subcircuit for sky130_fd_sc_hd__o221a_2 abstract view
.subckt sky130_fd_sc_hd__o221a_2 A1 A2 B1 B2 C1 VGND VNB VPB VPWR X
.ends

* Black-box entry subcircuit for sky130_fd_sc_hd__o21a_4 abstract view
.subckt sky130_fd_sc_hd__o21a_4 A1 A2 B1 VGND VNB VPB VPWR X
.ends

* Black-box entry subcircuit for sky130_fd_sc_hd__buf_4 abstract view
.subckt sky130_fd_sc_hd__buf_4 A VGND VNB VPB VPWR X
.ends

* Black-box entry subcircuit for sky130_fd_sc_hd__nand2_2 abstract view
.subckt sky130_fd_sc_hd__nand2_2 A B VGND VNB VPB VPWR Y
.ends

* Black-box entry subcircuit for sky130_fd_sc_hd__or2b_1 abstract view
.subckt sky130_fd_sc_hd__or2b_1 A B_N VGND VNB VPB VPWR X
.ends

* Black-box entry subcircuit for sky130_fd_sc_hd__nor4_1 abstract view
.subckt sky130_fd_sc_hd__nor4_1 A B C D VGND VNB VPB VPWR Y
.ends

* Black-box entry subcircuit for sky130_fd_sc_hd__a2bb2o_1 abstract view
.subckt sky130_fd_sc_hd__a2bb2o_1 A1_N A2_N B1 B2 VGND VNB VPB VPWR X
.ends

* Black-box entry subcircuit for sky130_fd_sc_hd__nor2_4 abstract view
.subckt sky130_fd_sc_hd__nor2_4 A B VGND VNB VPB VPWR Y
.ends

* Black-box entry subcircuit for sky130_fd_sc_hd__a32o_2 abstract view
.subckt sky130_fd_sc_hd__a32o_2 A1 A2 A3 B1 B2 VGND VNB VPB VPWR X
.ends

* Black-box entry subcircuit for sky130_fd_sc_hd__nor3_2 abstract view
.subckt sky130_fd_sc_hd__nor3_2 A B C VGND VNB VPB VPWR Y
.ends

* Black-box entry subcircuit for sky130_fd_sc_hd__o21ai_1 abstract view
.subckt sky130_fd_sc_hd__o21ai_1 A1 A2 B1 VGND VNB VPB VPWR Y
.ends

* Black-box entry subcircuit for sky130_fd_sc_hd__o211a_2 abstract view
.subckt sky130_fd_sc_hd__o211a_2 A1 A2 B1 C1 VGND VNB VPB VPWR X
.ends

* Black-box entry subcircuit for sky130_fd_sc_hd__a31oi_1 abstract view
.subckt sky130_fd_sc_hd__a31oi_1 A1 A2 A3 B1 VGND VNB VPB VPWR Y
.ends

* Black-box entry subcircuit for sky130_fd_sc_hd__a221oi_1 abstract view
.subckt sky130_fd_sc_hd__a221oi_1 A1 A2 B1 B2 C1 VGND VNB VPB VPWR Y
.ends

* Black-box entry subcircuit for sky130_fd_sc_hd__o31ai_4 abstract view
.subckt sky130_fd_sc_hd__o31ai_4 A1 A2 A3 B1 VGND VNB VPB VPWR Y
.ends

* Black-box entry subcircuit for sky130_fd_sc_hd__clkinv_2 abstract view
.subckt sky130_fd_sc_hd__clkinv_2 A VGND VNB VPB VPWR Y
.ends

* Black-box entry subcircuit for sky130_fd_sc_hd__or4b_1 abstract view
.subckt sky130_fd_sc_hd__or4b_1 A B C D_N VGND VNB VPB VPWR X
.ends

* Black-box entry subcircuit for sky130_fd_sc_hd__a21oi_4 abstract view
.subckt sky130_fd_sc_hd__a21oi_4 A1 A2 B1 VGND VNB VPB VPWR Y
.ends

* Black-box entry subcircuit for sky130_fd_sc_hd__a32oi_4 abstract view
.subckt sky130_fd_sc_hd__a32oi_4 A1 A2 A3 B1 B2 VGND VNB VPB VPWR Y
.ends

* Black-box entry subcircuit for sky130_fd_sc_hd__a41o_1 abstract view
.subckt sky130_fd_sc_hd__a41o_1 A1 A2 A3 A4 B1 VGND VNB VPB VPWR X
.ends

* Black-box entry subcircuit for sky130_fd_sc_hd__o221ai_4 abstract view
.subckt sky130_fd_sc_hd__o221ai_4 A1 A2 B1 B2 C1 VGND VNB VPB VPWR Y
.ends

* Black-box entry subcircuit for sky130_fd_sc_hd__diode_2 abstract view
.subckt sky130_fd_sc_hd__diode_2 DIODE VGND VNB VPB VPWR
.ends

* Black-box entry subcircuit for sky130_fd_sc_hd__or2b_2 abstract view
.subckt sky130_fd_sc_hd__or2b_2 A B_N VGND VNB VPB VPWR X
.ends

.subckt tile_clb bi_u1y0n_L1[0] bi_u1y0n_L1[10] bi_u1y0n_L1[11] bi_u1y0n_L1[1] bi_u1y0n_L1[2]
+ bi_u1y0n_L1[3] bi_u1y0n_L1[4] bi_u1y0n_L1[5] bi_u1y0n_L1[6] bi_u1y0n_L1[7] bi_u1y0n_L1[8]
+ bi_u1y0n_L1[9] bi_u1y0s_L1[0] bi_u1y0s_L1[10] bi_u1y0s_L1[11] bi_u1y0s_L1[1] bi_u1y0s_L1[2]
+ bi_u1y0s_L1[3] bi_u1y0s_L1[4] bi_u1y0s_L1[5] bi_u1y0s_L1[6] bi_u1y0s_L1[7] bi_u1y0s_L1[8]
+ bi_u1y0s_L1[9] clk cu_x0y0n_L1[0] cu_x0y0n_L1[10] cu_x0y0n_L1[11] cu_x0y0n_L1[1]
+ cu_x0y0n_L1[2] cu_x0y0n_L1[3] cu_x0y0n_L1[4] cu_x0y0n_L1[5] cu_x0y0n_L1[6] cu_x0y0n_L1[7]
+ cu_x0y0n_L1[8] cu_x0y0n_L1[9] cu_x0y0s_L1[0] cu_x0y0s_L1[10] cu_x0y0s_L1[11] cu_x0y0s_L1[1]
+ cu_x0y0s_L1[2] cu_x0y0s_L1[3] cu_x0y0s_L1[4] cu_x0y0s_L1[5] cu_x0y0s_L1[6] cu_x0y0s_L1[7]
+ cu_x0y0s_L1[8] cu_x0y0s_L1[9] prog_clk prog_din prog_done prog_dout prog_rst prog_we
+ prog_we_o vccd1 vssd1
XFILLER_54_269 vssd1 vssd1 vccd1 vccd1 sky130_fd_sc_hd__fill_4
XFILLER_54_225 vssd1 vssd1 vccd1 vccd1 sky130_fd_sc_hd__fill_4
X_2106_ _2749_/Q _2100_/X _2101_/X vssd1 vssd1 vccd1 vccd1 _2106_/X sky130_fd_sc_hd__o21ba_1
XFILLER_36_19 vssd1 vssd1 vccd1 vccd1 sky130_fd_sc_hd__fill_8
X_2037_ _2763_/Q _2037_/B _2037_/C vssd1 vssd1 vccd1 vccd1 _2038_/A sky130_fd_sc_hd__and3_1
XTAP_177 vssd1 vccd1 sky130_fd_sc_hd__tapvpwrvgnd_1
XTAP_188 vssd1 vccd1 sky130_fd_sc_hd__tapvpwrvgnd_1
XTAP_199 vssd1 vccd1 sky130_fd_sc_hd__tapvpwrvgnd_1
X_2939_ _2949_/CLK _2939_/D vssd1 vssd1 vccd1 vccd1 _2939_/Q sky130_fd_sc_hd__dfxtp_1
XFILLER_22_144 vssd1 vssd1 vccd1 vccd1 sky130_fd_sc_hd__fill_4
XFILLER_22_188 vssd1 vssd1 vccd1 vccd1 sky130_fd_sc_hd__fill_8
XFILLER_7_7 vssd1 vssd1 vccd1 vccd1 sky130_fd_sc_hd__fill_1
XFILLER_53_291 vssd1 vssd1 vccd1 vccd1 sky130_fd_sc_hd__fill_4
XFILLER_45_225 vssd1 vssd1 vccd1 vccd1 sky130_fd_sc_hd__fill_4
XFILLER_13_111 vssd1 vssd1 vccd1 vccd1 sky130_fd_sc_hd__fill_1
XFILLER_42_73 vssd1 vssd1 vccd1 vccd1 sky130_fd_sc_hd__fill_4
XFILLER_68_317 vssd1 vssd1 vccd1 vccd1 sky130_fd_sc_hd__fill_4
XFILLER_44_280 vssd1 vssd1 vccd1 vccd1 sky130_fd_sc_hd__fill_2
X_1606_ _1604_/X _1605_/X _1457_/A vssd1 vssd1 vccd1 vccd1 _1607_/S sky130_fd_sc_hd__o21a_1
X_2655_ _2668_/CLK _2655_/D vssd1 vssd1 vccd1 vccd1 _2655_/Q sky130_fd_sc_hd__dfxtp_1
X_2724_ _2766_/CLK _2724_/D vssd1 vssd1 vccd1 vccd1 _2724_/Q sky130_fd_sc_hd__dfxtp_1
X_1468_ _2909_/Q _2908_/Q _1664_/A _1466_/Y _1467_/Y vssd1 vssd1 vccd1 vccd1 _1468_/X
+ sky130_fd_sc_hd__a311o_2
X_1537_ _2902_/Q _1753_/B _1536_/Y _1661_/X _1598_/B vssd1 vssd1 vccd1 vccd1 _1538_/B
+ sky130_fd_sc_hd__o221a_1
X_2586_ _2931_/Q _2574_/X _2585_/X vssd1 vssd1 vccd1 vccd1 _2928_/D sky130_fd_sc_hd__o21a_1
X_1399_ _2794_/Q _1389_/Y _1396_/X _2791_/Q vssd1 vssd1 vccd1 vccd1 _1399_/X sky130_fd_sc_hd__a22o_1
XFILLER_50_283 vssd1 vssd1 vccd1 vccd1 sky130_fd_sc_hd__fill_4
XFILLER_50_250 vssd1 vssd1 vccd1 vccd1 sky130_fd_sc_hd__fill_2
XFILLER_6_107 vssd1 vssd1 vccd1 vccd1 sky130_fd_sc_hd__fill_4
XFILLER_6_129 vssd1 vssd1 vccd1 vccd1 sky130_fd_sc_hd__fill_4
XFILLER_10_169 vssd1 vssd1 vccd1 vccd1 sky130_fd_sc_hd__fill_1
XFILLER_2_302 vssd1 vssd1 vccd1 vccd1 sky130_fd_sc_hd__fill_4
XFILLER_53_61 vssd1 vssd1 vccd1 vccd1 sky130_fd_sc_hd__fill_1
XFILLER_53_50 vssd1 vssd1 vccd1 vccd1 sky130_fd_sc_hd__fill_4
XFILLER_33_239 vssd1 vssd1 vccd1 vccd1 sky130_fd_sc_hd__fill_1
X_2440_ _2872_/Q _2430_/X _2436_/X vssd1 vssd1 vccd1 vccd1 _2440_/X sky130_fd_sc_hd__o21ba_1
XFILLER_56_309 vssd1 vssd1 vccd1 vccd1 sky130_fd_sc_hd__fill_4
X_1322_ input21/X input3/X _1322_/S vssd1 vssd1 vccd1 vccd1 _1322_/X sky130_fd_sc_hd__mux2_1
X_2371_ _1366_/S _2353_/X _2359_/X vssd1 vssd1 vccd1 vccd1 _2371_/X sky130_fd_sc_hd__o21ba_1
XFILLER_5_184 vssd1 vssd1 vccd1 vccd1 sky130_fd_sc_hd__fill_1
X_2707_ _2881_/CLK _2707_/D vssd1 vssd1 vccd1 vccd1 _2707_/Q sky130_fd_sc_hd__dfxtp_1
X_2638_ _1561_/Y _1588_/X _1596_/X _1598_/X _2658_/Q vssd1 vssd1 vccd1 vccd1 _2950_/D
+ sky130_fd_sc_hd__o2111a_1
X_2569_ _2925_/Q _2561_/X _2568_/X vssd1 vssd1 vccd1 vccd1 _2922_/D sky130_fd_sc_hd__o21a_1
XFILLER_74_139 vssd1 vssd1 vccd1 vccd1 sky130_fd_sc_hd__fill_1
XFILLER_74_117 vssd1 vssd1 vccd1 vccd1 sky130_fd_sc_hd__fill_2
XFILLER_59_169 vssd1 vssd1 vccd1 vccd1 sky130_fd_sc_hd__fill_2
XFILLER_59_147 vssd1 vssd1 vccd1 vccd1 sky130_fd_sc_hd__fill_8
XFILLER_47_309 vssd1 vssd1 vccd1 vccd1 sky130_fd_sc_hd__fill_8
XFILLER_30_209 vssd1 vssd1 vccd1 vccd1 sky130_fd_sc_hd__fill_4
XFILLER_15_206 vssd1 vssd1 vccd1 vccd1 sky130_fd_sc_hd__fill_1
XFILLER_48_61 vssd1 vssd1 vccd1 vccd1 sky130_fd_sc_hd__fill_1
XFILLER_38_309 vssd1 vssd1 vccd1 vccd1 sky130_fd_sc_hd__fill_4
XFILLER_64_71 vssd1 vssd1 vccd1 vccd1 sky130_fd_sc_hd__fill_4
XFILLER_61_301 vssd1 vssd1 vccd1 vccd1 sky130_fd_sc_hd__fill_4
X_1940_ _2153_/A vssd1 vssd1 vccd1 vccd1 _1999_/A sky130_fd_sc_hd__dlymetal6s2s_1
X_1871_ _2662_/Q _1850_/X _1851_/X vssd1 vssd1 vccd1 vccd1 _1871_/X sky130_fd_sc_hd__o21ba_1
XFILLER_9_55 vssd1 vssd1 vccd1 vccd1 sky130_fd_sc_hd__fill_1
XFILLER_50_3 vssd1 vssd1 vccd1 vccd1 sky130_fd_sc_hd__fill_4
X_2423_ _2866_/Q _2417_/X _2422_/X vssd1 vssd1 vccd1 vccd1 _2423_/X sky130_fd_sc_hd__o21ba_1
XFILLER_56_128 vssd1 vssd1 vccd1 vccd1 sky130_fd_sc_hd__fill_4
XFILLER_56_106 vssd1 vssd1 vccd1 vccd1 sky130_fd_sc_hd__fill_4
XFILLER_49_191 vssd1 vssd1 vccd1 vccd1 sky130_fd_sc_hd__fill_4
X_2354_ _1322_/S _2353_/X _2345_/X vssd1 vssd1 vccd1 vccd1 _2354_/X sky130_fd_sc_hd__o21ba_1
X_2285_ _2301_/A vssd1 vssd1 vccd1 vccd1 _2285_/X sky130_fd_sc_hd__clkbuf_2
XFILLER_60_29 vssd1 vssd1 vccd1 vccd1 sky130_fd_sc_hd__fill_8
XFILLER_20_231 vssd1 vssd1 vccd1 vccd1 sky130_fd_sc_hd__fill_1
XFILLER_20_253 vssd1 vssd1 vccd1 vccd1 sky130_fd_sc_hd__fill_4
XFILLER_43_312 vssd1 vssd1 vccd1 vccd1 sky130_fd_sc_hd__fill_4
XFILLER_43_301 vssd1 vssd1 vccd1 vccd1 sky130_fd_sc_hd__fill_2
XFILLER_34_85 vssd1 vssd1 vccd1 vccd1 sky130_fd_sc_hd__fill_4
XFILLER_11_220 vssd1 vssd1 vccd1 vccd1 sky130_fd_sc_hd__fill_4
XTAP_507 vssd1 vccd1 sky130_fd_sc_hd__tapvpwrvgnd_1
Xclkbuf_leaf_8_prog_clk clkbuf_2_2_0_prog_clk/X vssd1 vssd1 vccd1 vccd1 _2946_/CLK
+ sky130_fd_sc_hd__clkbuf_16
XTAP_529 vssd1 vccd1 sky130_fd_sc_hd__tapvpwrvgnd_1
XTAP_518 vssd1 vccd1 sky130_fd_sc_hd__tapvpwrvgnd_1
XFILLER_59_82 vssd1 vssd1 vccd1 vccd1 sky130_fd_sc_hd__fill_1
X_2070_ _2735_/Q _2068_/X _2069_/X vssd1 vssd1 vccd1 vccd1 _2070_/X sky130_fd_sc_hd__o21ba_1
XFILLER_38_139 vssd1 vssd1 vccd1 vccd1 sky130_fd_sc_hd__fill_1
XFILLER_38_106 vssd1 vssd1 vccd1 vccd1 sky130_fd_sc_hd__fill_4
XFILLER_15_6 vssd1 vssd1 vccd1 vccd1 sky130_fd_sc_hd__fill_4
XFILLER_61_120 vssd1 vssd1 vccd1 vccd1 sky130_fd_sc_hd__fill_8
X_1854_ _2657_/Q _1850_/X _1851_/X vssd1 vssd1 vccd1 vccd1 _1854_/X sky130_fd_sc_hd__o21ba_1
X_1923_ _1486_/Y _1861_/X _2639_/A vssd1 vssd1 vccd1 vccd1 _1923_/Y sky130_fd_sc_hd__a21oi_1
X_1785_ _2819_/Q _1783_/Y _2954_/A _1784_/X vssd1 vssd1 vccd1 vccd1 _1785_/X sky130_fd_sc_hd__a31o_1
XFILLER_6_290 vssd1 vssd1 vccd1 vccd1 sky130_fd_sc_hd__fill_4
X_2406_ _1377_/S _2397_/X _2405_/X vssd1 vssd1 vccd1 vccd1 _2859_/D sky130_fd_sc_hd__o21a_1
X_2337_ _1384_/S _2324_/X _2332_/X vssd1 vssd1 vccd1 vccd1 _2337_/X sky130_fd_sc_hd__o21ba_1
XFILLER_25_312 vssd1 vssd1 vccd1 vccd1 sky130_fd_sc_hd__fill_8
X_2199_ _2783_/Q _2196_/X _2198_/X vssd1 vssd1 vccd1 vccd1 _2199_/X sky130_fd_sc_hd__o21ba_1
X_2268_ _2268_/A vssd1 vssd1 vccd1 vccd1 _2460_/A sky130_fd_sc_hd__buf_2
XFILLER_52_197 vssd1 vssd1 vccd1 vccd1 sky130_fd_sc_hd__fill_4
XFILLER_52_186 vssd1 vssd1 vccd1 vccd1 sky130_fd_sc_hd__fill_8
XFILLER_75_223 vssd1 vssd1 vccd1 vccd1 sky130_fd_sc_hd__fill_1
XFILLER_75_201 vssd1 vssd1 vccd1 vccd1 sky130_fd_sc_hd__fill_2
XFILLER_75_256 vssd1 vssd1 vccd1 vccd1 sky130_fd_sc_hd__fill_8
XFILLER_43_164 vssd1 vssd1 vccd1 vccd1 sky130_fd_sc_hd__fill_4
XFILLER_28_194 vssd1 vssd1 vccd1 vccd1 sky130_fd_sc_hd__fill_2
XFILLER_28_161 vssd1 vssd1 vccd1 vccd1 sky130_fd_sc_hd__fill_2
X_1570_ _1593_/C _1589_/D _1583_/B vssd1 vssd1 vccd1 vccd1 _1570_/Y sky130_fd_sc_hd__o21ai_2
XTAP_348 vssd1 vccd1 sky130_fd_sc_hd__tapvpwrvgnd_1
XTAP_337 vssd1 vccd1 sky130_fd_sc_hd__tapvpwrvgnd_1
XTAP_326 vssd1 vccd1 sky130_fd_sc_hd__tapvpwrvgnd_1
XTAP_315 vssd1 vccd1 sky130_fd_sc_hd__tapvpwrvgnd_1
XTAP_304 vssd1 vccd1 sky130_fd_sc_hd__tapvpwrvgnd_1
XFILLER_3_271 vssd1 vssd1 vccd1 vccd1 sky130_fd_sc_hd__fill_8
XFILLER_3_260 vssd1 vssd1 vccd1 vccd1 sky130_fd_sc_hd__fill_2
XFILLER_6_89 vssd1 vssd1 vccd1 vccd1 sky130_fd_sc_hd__fill_2
XFILLER_66_234 vssd1 vssd1 vccd1 vccd1 sky130_fd_sc_hd__fill_2
X_2053_ _2053_/A vssd1 vssd1 vccd1 vccd1 _2053_/X sky130_fd_sc_hd__dlymetal6s2s_1
X_2122_ _2754_/Q _2110_/X _2121_/X vssd1 vssd1 vccd1 vccd1 _2755_/D sky130_fd_sc_hd__o21a_1
XTAP_359 vssd1 vccd1 sky130_fd_sc_hd__tapvpwrvgnd_1
XFILLER_13_3 vssd1 vssd1 vccd1 vccd1 sky130_fd_sc_hd__fill_4
XFILLER_34_197 vssd1 vssd1 vccd1 vccd1 sky130_fd_sc_hd__fill_2
XFILLER_34_186 vssd1 vssd1 vccd1 vccd1 sky130_fd_sc_hd__fill_8
X_2955_ _2955_/A vssd1 vssd1 vccd1 vccd1 _2955_/X sky130_fd_sc_hd__clkbuf_1
XFILLER_19_194 vssd1 vssd1 vccd1 vccd1 sky130_fd_sc_hd__fill_4
XFILLER_22_304 vssd1 vssd1 vccd1 vccd1 sky130_fd_sc_hd__fill_4
XFILLER_22_315 vssd1 vssd1 vccd1 vccd1 sky130_fd_sc_hd__fill_4
X_1906_ _2675_/Q _1899_/X _1901_/X vssd1 vssd1 vccd1 vccd1 _1906_/X sky130_fd_sc_hd__o21ba_1
X_1837_ _1899_/A vssd1 vssd1 vccd1 vccd1 _1837_/X sky130_fd_sc_hd__dlymetal6s2s_1
X_2886_ _2891_/CLK _2886_/D vssd1 vssd1 vccd1 vccd1 _2886_/Q sky130_fd_sc_hd__dfxtp_1
X_1768_ _2783_/Q _2037_/B _1768_/C vssd1 vssd1 vccd1 vccd1 _1769_/A sky130_fd_sc_hd__and3_1
XFILLER_57_212 vssd1 vssd1 vccd1 vccd1 sky130_fd_sc_hd__fill_4
X_1699_ _1368_/X _1369_/X _2928_/Q vssd1 vssd1 vccd1 vccd1 _1699_/X sky130_fd_sc_hd__mux2_1
XFILLER_72_237 vssd1 vssd1 vccd1 vccd1 sky130_fd_sc_hd__fill_4
XFILLER_25_164 vssd1 vssd1 vccd1 vccd1 sky130_fd_sc_hd__fill_4
XFILLER_25_197 vssd1 vssd1 vccd1 vccd1 sky130_fd_sc_hd__fill_4
Xoutput42 _2960_/X vssd1 vssd1 vccd1 vccd1 cu_x0y0s_L1[10] sky130_fd_sc_hd__clkbuf_1
Xoutput53 _2829_/Q vssd1 vssd1 vccd1 vccd1 prog_dout sky130_fd_sc_hd__clkbuf_1
Xoutput31 _2961_/A vssd1 vssd1 vccd1 vccd1 cu_x0y0n_L1[11] sky130_fd_sc_hd__clkbuf_1
XFILLER_48_245 vssd1 vssd1 vccd1 vccd1 sky130_fd_sc_hd__fill_4
XFILLER_48_223 vssd1 vssd1 vccd1 vccd1 sky130_fd_sc_hd__fill_4
XFILLER_0_274 vssd1 vssd1 vccd1 vccd1 sky130_fd_sc_hd__fill_4
XFILLER_63_248 vssd1 vssd1 vccd1 vccd1 sky130_fd_sc_hd__fill_4
XFILLER_31_167 vssd1 vssd1 vccd1 vccd1 sky130_fd_sc_hd__fill_1
X_2671_ _2677_/CLK _2671_/D vssd1 vssd1 vccd1 vccd1 _2671_/Q sky130_fd_sc_hd__dfxtp_1
X_2740_ _2755_/CLK _2740_/D vssd1 vssd1 vccd1 vccd1 _2740_/Q sky130_fd_sc_hd__dfxtp_1
X_1622_ _1502_/B input3/X _2873_/Q vssd1 vssd1 vccd1 vccd1 _1622_/X sky130_fd_sc_hd__mux2_1
X_1484_ _1778_/A _1484_/B vssd1 vssd1 vccd1 vccd1 _1485_/A sky130_fd_sc_hd__and2_1
X_1553_ _1502_/B input11/X _1553_/S vssd1 vssd1 vccd1 vccd1 _1553_/X sky130_fd_sc_hd__mux2_1
XFILLER_39_223 vssd1 vssd1 vccd1 vccd1 sky130_fd_sc_hd__fill_1
XFILLER_39_212 vssd1 vssd1 vccd1 vccd1 sky130_fd_sc_hd__fill_1
XTAP_178 vssd1 vccd1 sky130_fd_sc_hd__tapvpwrvgnd_1
XTAP_167 vssd1 vccd1 sky130_fd_sc_hd__tapvpwrvgnd_1
XTAP_156 vssd1 vccd1 sky130_fd_sc_hd__tapvpwrvgnd_1
XTAP_189 vssd1 vccd1 sky130_fd_sc_hd__tapvpwrvgnd_1
X_2036_ _2722_/Q _2026_/X _2035_/X vssd1 vssd1 vccd1 vccd1 _2723_/D sky130_fd_sc_hd__o21a_1
XFILLER_39_289 vssd1 vssd1 vccd1 vccd1 sky130_fd_sc_hd__fill_1
XFILLER_39_267 vssd1 vssd1 vccd1 vccd1 sky130_fd_sc_hd__fill_4
X_2105_ _2747_/Q _2097_/X _2104_/X vssd1 vssd1 vccd1 vccd1 _2748_/D sky130_fd_sc_hd__o21a_1
XFILLER_52_19 vssd1 vssd1 vccd1 vccd1 sky130_fd_sc_hd__fill_8
XFILLER_10_307 vssd1 vssd1 vccd1 vccd1 sky130_fd_sc_hd__fill_1
XFILLER_10_329 vssd1 vssd1 vccd1 vccd1 sky130_fd_sc_hd__fill_4
X_2938_ _2943_/CLK _2938_/D vssd1 vssd1 vccd1 vccd1 _2938_/Q sky130_fd_sc_hd__dfxtp_1
XFILLER_22_101 vssd1 vssd1 vccd1 vccd1 sky130_fd_sc_hd__fill_1
XFILLER_22_178 vssd1 vssd1 vccd1 vccd1 sky130_fd_sc_hd__fill_4
X_2869_ _2872_/CLK _2869_/D vssd1 vssd1 vccd1 vccd1 _2869_/Q sky130_fd_sc_hd__dfxtp_1
XFILLER_45_215 vssd1 vssd1 vccd1 vccd1 sky130_fd_sc_hd__fill_8
Xclkbuf_leaf_22_prog_clk clkbuf_2_1_0_prog_clk/X vssd1 vssd1 vccd1 vccd1 _2948_/CLK
+ sky130_fd_sc_hd__clkbuf_16
XFILLER_13_145 vssd1 vssd1 vccd1 vccd1 sky130_fd_sc_hd__fill_8
XFILLER_42_85 vssd1 vssd1 vccd1 vccd1 sky130_fd_sc_hd__fill_1
XFILLER_42_52 vssd1 vssd1 vccd1 vccd1 sky130_fd_sc_hd__fill_2
XFILLER_9_127 vssd1 vssd1 vccd1 vccd1 sky130_fd_sc_hd__fill_8
XFILLER_67_60 vssd1 vssd1 vccd1 vccd1 sky130_fd_sc_hd__fill_4
XFILLER_3_79 vssd1 vssd1 vccd1 vccd1 sky130_fd_sc_hd__fill_4
XFILLER_3_35 vssd1 vssd1 vccd1 vccd1 sky130_fd_sc_hd__fill_1
X_2723_ _2881_/CLK _2723_/D vssd1 vssd1 vccd1 vccd1 _2723_/Q sky130_fd_sc_hd__dfxtp_1
X_2654_ _2668_/CLK _2654_/D vssd1 vssd1 vccd1 vccd1 _2654_/Q sky130_fd_sc_hd__dfxtp_1
X_1605_ _2901_/Q _2900_/Q _1605_/C vssd1 vssd1 vccd1 vccd1 _1605_/X sky130_fd_sc_hd__and3b_1
X_1536_ _2903_/Q _2902_/Q vssd1 vssd1 vccd1 vccd1 _1536_/Y sky130_fd_sc_hd__nand2_1
X_2585_ _2928_/Q _2583_/X _2584_/X vssd1 vssd1 vccd1 vccd1 _2585_/X sky130_fd_sc_hd__o21ba_1
X_1467_ _2908_/Q _1467_/B vssd1 vssd1 vccd1 vccd1 _1467_/Y sky130_fd_sc_hd__nor2_1
XFILLER_47_19 vssd1 vssd1 vccd1 vccd1 sky130_fd_sc_hd__fill_8
X_1398_ _2788_/Q _1391_/Y _1396_/X _2787_/Q _1397_/X vssd1 vssd1 vccd1 vccd1 _1398_/X
+ sky130_fd_sc_hd__a221o_1
X_2019_ _2715_/Q _2013_/X _2018_/X vssd1 vssd1 vccd1 vccd1 _2716_/D sky130_fd_sc_hd__o21a_1
XFILLER_35_281 vssd1 vssd1 vccd1 vccd1 sky130_fd_sc_hd__fill_2
XFILLER_27_259 vssd1 vssd1 vccd1 vccd1 sky130_fd_sc_hd__fill_8
XFILLER_27_248 vssd1 vssd1 vccd1 vccd1 sky130_fd_sc_hd__fill_4
XFILLER_50_262 vssd1 vssd1 vccd1 vccd1 sky130_fd_sc_hd__fill_4
XFILLER_73_332 vssd1 vssd1 vccd1 vccd1 sky130_fd_sc_hd__fill_1
XFILLER_37_63 vssd1 vssd1 vccd1 vccd1 sky130_fd_sc_hd__fill_8
XFILLER_37_52 vssd1 vssd1 vccd1 vccd1 sky130_fd_sc_hd__fill_4
XFILLER_53_84 vssd1 vssd1 vccd1 vccd1 sky130_fd_sc_hd__fill_4
X_1321_ input18/X input9/X _2840_/Q vssd1 vssd1 vccd1 vccd1 _1321_/X sky130_fd_sc_hd__mux2_1
X_2370_ _2384_/A vssd1 vssd1 vccd1 vccd1 _2370_/X sky130_fd_sc_hd__clkbuf_2
X_2706_ _2881_/CLK _2706_/D vssd1 vssd1 vccd1 vccd1 _2706_/Q sky130_fd_sc_hd__dfxtp_1
XFILLER_32_284 vssd1 vssd1 vccd1 vccd1 sky130_fd_sc_hd__fill_4
X_1519_ _1520_/B _1522_/B vssd1 vssd1 vccd1 vccd1 _1519_/Y sky130_fd_sc_hd__nor2_1
X_2499_ _2550_/A vssd1 vssd1 vccd1 vccd1 _2499_/X sky130_fd_sc_hd__clkbuf_2
X_2568_ _2922_/Q _2550_/X _2551_/X vssd1 vssd1 vccd1 vccd1 _2568_/X sky130_fd_sc_hd__o21ba_1
X_2637_ _2637_/A vssd1 vssd1 vccd1 vccd1 _2949_/D sky130_fd_sc_hd__clkbuf_1
XFILLER_70_302 vssd1 vssd1 vccd1 vccd1 sky130_fd_sc_hd__fill_4
XFILLER_23_295 vssd1 vssd1 vccd1 vccd1 sky130_fd_sc_hd__fill_2
XFILLER_64_94 vssd1 vssd1 vccd1 vccd1 sky130_fd_sc_hd__fill_8
XFILLER_58_192 vssd1 vssd1 vccd1 vccd1 sky130_fd_sc_hd__fill_4
X_1870_ _1927_/A vssd1 vssd1 vccd1 vccd1 _1870_/X sky130_fd_sc_hd__clkbuf_2
XFILLER_14_251 vssd1 vssd1 vccd1 vccd1 sky130_fd_sc_hd__fill_1
XFILLER_43_3 vssd1 vssd1 vccd1 vccd1 sky130_fd_sc_hd__fill_2
X_2353_ _2400_/S vssd1 vssd1 vccd1 vccd1 _2353_/X sky130_fd_sc_hd__clkbuf_2
X_2422_ _2422_/A vssd1 vssd1 vccd1 vccd1 _2422_/X sky130_fd_sc_hd__dlymetal6s2s_1
XFILLER_64_151 vssd1 vssd1 vccd1 vccd1 sky130_fd_sc_hd__fill_4
XFILLER_37_310 vssd1 vssd1 vccd1 vccd1 sky130_fd_sc_hd__fill_4
X_2284_ _2817_/Q _2282_/X _2283_/X vssd1 vssd1 vccd1 vccd1 _2814_/D sky130_fd_sc_hd__o21a_1
XFILLER_64_195 vssd1 vssd1 vccd1 vccd1 sky130_fd_sc_hd__fill_1
X_1999_ _1999_/A vssd1 vssd1 vccd1 vccd1 _1999_/X sky130_fd_sc_hd__dlymetal6s2s_1
XFILLER_69_39 vssd1 vssd1 vccd1 vccd1 sky130_fd_sc_hd__fill_4
XFILLER_55_162 vssd1 vssd1 vccd1 vccd1 sky130_fd_sc_hd__fill_4
XFILLER_43_324 vssd1 vssd1 vccd1 vccd1 sky130_fd_sc_hd__fill_8
XFILLER_18_21 vssd1 vssd1 vccd1 vccd1 sky130_fd_sc_hd__fill_4
XFILLER_70_176 vssd1 vssd1 vccd1 vccd1 sky130_fd_sc_hd__fill_8
XFILLER_7_225 vssd1 vssd1 vccd1 vccd1 sky130_fd_sc_hd__fill_2
XFILLER_11_232 vssd1 vssd1 vccd1 vccd1 sky130_fd_sc_hd__fill_8
XFILLER_11_276 vssd1 vssd1 vccd1 vccd1 sky130_fd_sc_hd__fill_4
XFILLER_11_287 vssd1 vssd1 vccd1 vccd1 sky130_fd_sc_hd__fill_4
XTAP_519 vssd1 vccd1 sky130_fd_sc_hd__tapvpwrvgnd_1
XTAP_508 vssd1 vccd1 sky130_fd_sc_hd__tapvpwrvgnd_1
XFILLER_50_96 vssd1 vssd1 vccd1 vccd1 sky130_fd_sc_hd__fill_1
XFILLER_19_310 vssd1 vssd1 vccd1 vccd1 sky130_fd_sc_hd__fill_4
X_1922_ _2679_/Q _1910_/X _1921_/X vssd1 vssd1 vccd1 vccd1 _2680_/D sky130_fd_sc_hd__o21a_1
XFILLER_61_198 vssd1 vssd1 vccd1 vccd1 sky130_fd_sc_hd__fill_2
XFILLER_61_143 vssd1 vssd1 vccd1 vccd1 sky130_fd_sc_hd__fill_4
XFILLER_61_110 vssd1 vssd1 vccd1 vccd1 sky130_fd_sc_hd__fill_2
X_1853_ _2655_/Q _1849_/X _1852_/X vssd1 vssd1 vccd1 vccd1 _2656_/D sky130_fd_sc_hd__o21a_1
X_1784_ _2819_/Q _2818_/Q _2151_/B _1784_/D vssd1 vssd1 vccd1 vccd1 _1784_/X sky130_fd_sc_hd__and4b_1
XFILLER_69_276 vssd1 vssd1 vccd1 vccd1 sky130_fd_sc_hd__fill_4
XFILLER_69_221 vssd1 vssd1 vccd1 vccd1 sky130_fd_sc_hd__fill_2
X_2336_ _2832_/Q _2321_/X _2335_/X vssd1 vssd1 vccd1 vccd1 _2833_/D sky130_fd_sc_hd__o21a_1
X_2405_ _2859_/Q _2404_/X _2392_/X vssd1 vssd1 vccd1 vccd1 _2405_/X sky130_fd_sc_hd__o21ba_1
XFILLER_1_90 vssd1 vssd1 vccd1 vccd1 sky130_fd_sc_hd__fill_2
X_2198_ _2254_/A vssd1 vssd1 vccd1 vccd1 _2198_/X sky130_fd_sc_hd__clkbuf_1
X_2267_ _2510_/A vssd1 vssd1 vccd1 vccd1 _2268_/A sky130_fd_sc_hd__clkbuf_2
XFILLER_52_165 vssd1 vssd1 vccd1 vccd1 sky130_fd_sc_hd__fill_4
XFILLER_52_154 vssd1 vssd1 vccd1 vccd1 sky130_fd_sc_hd__fill_1
XFILLER_20_33 vssd1 vssd1 vccd1 vccd1 sky130_fd_sc_hd__fill_4
XFILLER_45_52 vssd1 vssd1 vccd1 vccd1 sky130_fd_sc_hd__fill_4
XFILLER_43_143 vssd1 vssd1 vccd1 vccd1 sky130_fd_sc_hd__fill_4
XFILLER_43_110 vssd1 vssd1 vccd1 vccd1 sky130_fd_sc_hd__fill_2
XFILLER_28_173 vssd1 vssd1 vccd1 vccd1 sky130_fd_sc_hd__fill_4
XFILLER_16_302 vssd1 vssd1 vccd1 vccd1 sky130_fd_sc_hd__fill_4
XFILLER_61_73 vssd1 vssd1 vccd1 vccd1 sky130_fd_sc_hd__fill_4
XTAP_349 vssd1 vccd1 sky130_fd_sc_hd__tapvpwrvgnd_1
XTAP_338 vssd1 vccd1 sky130_fd_sc_hd__tapvpwrvgnd_1
XTAP_327 vssd1 vccd1 sky130_fd_sc_hd__tapvpwrvgnd_1
XTAP_316 vssd1 vccd1 sky130_fd_sc_hd__tapvpwrvgnd_1
XTAP_305 vssd1 vccd1 sky130_fd_sc_hd__tapvpwrvgnd_1
XFILLER_3_294 vssd1 vssd1 vccd1 vccd1 sky130_fd_sc_hd__fill_4
X_2052_ _2066_/A vssd1 vssd1 vccd1 vccd1 _2052_/X sky130_fd_sc_hd__clkbuf_2
X_2121_ _2755_/Q _2113_/X _2114_/X vssd1 vssd1 vccd1 vccd1 _2121_/X sky130_fd_sc_hd__o21ba_1
XFILLER_34_121 vssd1 vssd1 vccd1 vccd1 sky130_fd_sc_hd__fill_4
X_1905_ _2673_/Q _1896_/X _1904_/X vssd1 vssd1 vccd1 vccd1 _2674_/D sky130_fd_sc_hd__o21a_1